*****
 OpenBabel06102514423D

 18 19  0  0  0  0  0  0  0  0999 V2000
   -9.2630    8.8160   24.1500 O   0  0  0  0  0  0  0  0  0  0  0  0
   -9.7790    9.6350   25.1060 C   0  0  0  0  0  0  0  0  0  0  0  0
   -8.9200   10.6000   25.8280 C   0  0  0  0  0  0  0  0  0  0  0  0
   -7.5700   10.7930   25.5100 C   0  0  0  0  0  0  0  0  0  0  0  0
   -6.8110   11.6790   26.2650 C   0  0  0  0  0  0  0  0  0  0  0  0
   -7.4150   12.4640   27.2390 C   0  0  0  0  0  0  0  0  0  0  0  0
   -8.7900   12.4040   27.4380 C   0  0  0  0  0  0  0  0  0  0  0  0
   -9.5410   11.4250   26.7830 C   0  0  0  0  0  0  0  0  0  0  0  0
  -10.9860   11.2680   27.0350 C   0  0  0  0  0  0  0  0  0  0  0  0
  -11.6210   11.9200   27.8540 O   0  0  0  0  0  0  0  0  0  0  0  0
  -11.6010   10.3190   26.3020 N   0  0  0  0  0  0  0  0  0  0  0  0
  -11.0470    9.5400   25.3100 N   0  0  0  0  0  0  0  0  0  0  0  0
   -9.8198    8.2103   23.7017 H   0  0  0  0  0  0  0  0  0  0  0  0
   -7.1425   10.2818   24.7220 H   0  0  0  0  0  0  0  0  0  0  0  0
   -5.7948   11.7541   26.1015 H   0  0  0  0  0  0  0  0  0  0  0  0
   -6.8399   13.0954   27.8183 H   0  0  0  0  0  0  0  0  0  0  0  0
   -9.2532   13.0791   28.0662 H   0  0  0  0  0  0  0  0  0  0  0  0
  -12.5535   10.1651   26.4975 H   0  0  0  0  0  0  0  0  0  0  0  0
  1  2  1  0  0  0  0
  1 13  1  0  0  0  0
  2 12  2  0  0  0  0
  2  3  1  0  0  0  0
  3  4  2  0  0  0  0
  3  8  1  0  0  0  0
  4  5  1  0  0  0  0
  4 14  1  0  0  0  0
  5  6  2  0  0  0  0
  5 15  1  0  0  0  0
  6  7  1  0  0  0  0
  6 16  1  0  0  0  0
  7  8  2  0  0  0  0
  7 17  1  0  0  0  0
  8  9  1  0  0  0  0
  9 11  1  0  0  0  0
  9 10  2  0  0  0  0
 11 12  1  0  0  0  0
 11 18  1  0  0  0  0
M  END
$$$$

